7 
# Converted from the trexio file using trex2champ converter https://github.com/TREX-CoE/trexio_tools 
Ar     0.000000  0.000000  6.614041 
C     -1.262692  0.000000  0.000000 
C      1.262692  0.000000  0.000000 
H     -2.340027 -1.744735  0.000000 
H      2.340027 -1.744735  0.000000 
H     -2.340027  1.744735  0.000000 
H      2.340027  1.744735  0.000000 

