10 
# Converted from the trexio file using trex2champ converter https://github.com/TREX-CoE/trexio_tools 
C        -1.157935268200    -0.733652099700     0.000000000000 
C         1.157935268200     0.733652099700     0.000000000000 
C        -3.466418865600     0.298187422500     0.000000000000 
C         3.466418865600    -0.298187422500     0.000000000000 
H        -3.706633274200     2.326422766200     0.000000000000 
H         3.706633274200    -2.326422766200     0.000000000000 
H        -0.963193335900    -2.772180780800     0.000000000000 
H         0.963193335900     2.772180780800     0.000000000000 
H        -5.146950296700    -0.855550764200     0.000000000000 
H         5.146950296700     0.855550764200     0.000000000000 

