12 
# Converted from the trexio file using trex2champ converter https://github.com/TREX-CoE/trexio_tools 
C        -1.347525807300     2.274814349500     0.000000000000 
C        -0.017083122900    -0.029593109000     0.000000000000 
C         2.643802245900    -0.029593109000     0.000000000000 
C         3.974244930300     2.274814349500     0.000000000000 
C         2.643802245900     4.579202910700     0.000000000000 
C        -0.017083122900     4.579202910700     0.000000000000 
H        -3.279638349000     2.274814349500     0.000000000000 
H        -0.983129945100    -1.702850984800     0.000000000000 
H         3.609849068000    -1.702850984800     0.000000000000 
H         5.906357471900     2.274814349500     0.000000000000 
H         3.609849068000     6.252460786500     0.000000000000 
H        -0.983129945100     6.252460786500     0.000000000000 

