10 
# Converted from the trexio file using trex2champ converter https://github.com/TREX-CoE/trexio_tools 
 C   -1.15793526820000      -0.733652099700000       0.0
 C    1.15793526820000       0.733652099700000       0.0
 C   -3.46641886560000       0.298187422500000       0.0
 C    3.46641886560000      -0.298187422500000       0.0
 H   -3.70663327420000        2.32642276620000       0.0
 H    3.70663327420000       -2.32642276620000       0.0
 H  -0.963193335900000       -2.77218078080000       0.0
 H   0.963193335900000        2.77218078080000       0.0
 H   -5.14695029670000      -0.855550764200000       0.0
 H    5.14695029670000       0.855550764200000       0.0

