10
Butadiene C2h
C   -1.157935 -0.733652  0.0
C    1.157935  0.733652  0.0
C   -3.466419  0.298187  0.0
C    3.466419 -0.298187  0.0
H   -3.706633  2.326423  0.0
H    3.706633 -2.326423  0.0
H   -0.963193 -2.772181  0.0
H    0.963193  2.772181  0.0
H   -5.146950 -0.855551  0.0
H    5.146950  0.855551  0.0
